Version 4.1
SHEET 1 2112 3768
WIRE 480 -192 480 -208
WIRE 480 -96 480 -112
WIRE 736 -16 608 -16
WIRE 864 -16 816 -16
WIRE 1152 -16 992 -16
WIRE 1296 -16 1232 -16
WIRE 1296 112 1296 -16
WIRE 1296 112 1200 112
WIRE 1392 112 1296 112
WIRE 864 128 864 -16
WIRE 864 128 800 128
WIRE 896 128 864 128
WIRE 992 128 992 -16
WIRE 992 128 960 128
WIRE 1008 128 992 128
WIRE 1104 128 1072 128
WIRE 1136 128 1104 128
WIRE 192 144 144 144
WIRE 528 144 320 144
WIRE 608 144 608 -16
WIRE 608 144 592 144
WIRE 624 144 608 144
WIRE 704 144 688 144
WIRE 736 144 704 144
WIRE 192 176 144 176
WIRE 480 176 320 176
WIRE 480 192 480 176
WIRE 352 208 320 208
WIRE 464 208 432 208
WIRE 1104 224 1104 128
WIRE 464 240 464 208
WIRE 464 240 320 240
WIRE 704 240 704 144
WIRE 704 352 704 320
WIRE 1104 352 1104 304
FLAG 480 192 0
FLAG 480 -208 FP1
IOPIN 480 -208 In
FLAG 480 -96 A2
IOPIN 480 -96 In
FLAG 144 144 FP1
IOPIN 144 144 Out
FLAG 144 176 A2
IOPIN 144 176 Out
FLAG 704 352 0
FLAG 1104 352 0
SYMBOL AD620 272 192 R0
SYMATTR InstName U1
SYMBOL res 448 192 R90
WINDOW 0 0 56 VBottom 2
WINDOW 3 32 56 VTop 2
SYMATTR InstName RG
SYMATTR Value 220
SYMBOL voltage 480 -208 R0
WINDOW 123 0 0 Left 0
WINDOW 39 0 0 Left 0
SYMATTR InstName V1
SYMATTR Value SINE(0 20u 10)
SYMBOL OpAmps\\OP177A 768 64 R0
SYMATTR InstName U2
SYMBOL OpAmps\\OP177A 1168 48 R0
SYMATTR InstName U3
SYMBOL cap 688 128 R90
WINDOW 0 0 32 VBottom 2
WINDOW 3 32 32 VTop 2
SYMATTR InstName C1
SYMBOL cap 592 128 R90
WINDOW 0 0 32 VBottom 2
WINDOW 3 32 32 VTop 2
SYMATTR InstName C2
SYMBOL res 832 -32 R90
WINDOW 0 0 56 VBottom 2
WINDOW 3 32 56 VTop 2
SYMATTR InstName R1
SYMBOL res 1248 -32 R90
WINDOW 0 0 56 VBottom 2
WINDOW 3 32 56 VTop 2
SYMATTR InstName R2
SYMBOL res 720 336 R180
WINDOW 0 36 76 Left 2
WINDOW 3 36 40 Left 2
SYMATTR InstName R3
SYMBOL cap 960 112 R90
WINDOW 0 0 32 VBottom 2
WINDOW 3 32 32 VTop 2
SYMATTR InstName C3
SYMBOL cap 1072 112 R90
WINDOW 0 0 32 VBottom 2
WINDOW 3 32 32 VTop 2
SYMATTR InstName C4
SYMBOL res 1088 208 R0
SYMATTR InstName R4
